<?xml version="1.0" encoding="UTF-8"?>
<routes xmlns:xsi="http://www.w3.org/2001/XMLSchema-instance" xsi:noNamespaceSchemaLocation="http://sumo.dlr.de/xsd/routes_file.xsd">
    
    <vType id="car_type" accel="2.6" decel="4.5" sigma="0.5" length="5.0" minGap="2.5" maxSpeed="50.0"/>

    <trip id="veh0" type="car_type" depart="0.0" from="E1" to="E2" departLane="best"/>
    <trip id="veh1" type="car_type" depart="0.5" from="E2" to="E3" departLane="best"/>
    <trip id="veh2" type="car_type" depart="1.0" from="E4" to="E1" departLane="best"/>
    
    </routes>
